#############################################################
#             ______       _    _          _   	            #
#            (_____ \     \ \  / /        | |               #
#             _____) )   _ \ \/ / |_  ____| |  	            #
#            |  ____/ | | | )  (|  _)/ _  | | 	            #
#            | |    | |_| |/ /\ \ |_( (_| | |___            #
#            |_|     \__  /_/  \_\___)__|_|_____)           #
#                   (____/                                  #
#---------------------(version    0.3.4)--------------------#
#       A Python package for random crystal generation      #
#       url: https://github.com/qzhu2017/pyxtal             #
#       @Zhu's group at University of Nevada Las Vegas      #
#############################################################
data_from_pyxtal

_symmetry_space_group_name_H-M 'P1'
_symmetry_Int_Tables_number                    1
_symmetry_cell_setting                 triclinic
_cell_length_a            3.661141
_cell_length_b            4.826210
_cell_length_c            5.299081
_cell_angle_alpha       102.011916
_cell_angle_beta         71.739856
_cell_angle_gamma        55.745403
_cell_volume             64.073050

loop_
 _symmetry_equiv_pos_site_id
 _symmetry_equiv_pos_as_xyz
1 'x, y, z'

loop_
 _atom_site_label
 _atom_site_type_symbol
 _atom_site_symmetry_multiplicity
 _atom_site_fract_x
 _atom_site_fract_y
 _atom_site_fract_z
 _atom_site_occupancy
Zn     Zn       1     0.063900    0.095606    0.105350 1
Zn     Zn       1     0.879610    0.123670    0.886366 1
Zn     Zn       1     0.222442    0.413652    0.760177 1
Mg     Mg       1     0.584725    0.700841    0.773447 1
O      O        1     0.852020    0.915952    0.958253 1
O      O        1     0.921598    0.971620    0.701068 1
O      O        1     0.725552    0.428285    0.156854 1
O      O        1     0.097488    0.733583    0.443157 1
#END

